/home/suncc/Code/pub/himatcal/examples/EleCal/GAFF/quacc-2024-10-21-07-50-25-229963-94095/Gaussian.pdb
 OpenBabel10222411113D

 10 10  0  0  0  0  0  0  0  0999 V2000
    0.5070   -1.1040   -0.5520 O   0  0  0  0  0  0  0  0  0  0  0  0
   -1.3180    0.1290   -0.1600 O   0  0  0  0  0  0  0  0  0  0  0  0
   -1.5070   -1.8110   -1.3220 O   0  0  0  0  0  0  0  0  0  0  0  0
    0.9370   -0.0720    0.3450 C   0  0  0  0  0  0  0  0  0  0  0  0
   -0.2190    0.9350    0.2850 C   0  0  0  0  0  0  0  0  0  0  0  0
   -0.8400   -1.0100   -0.7380 C   0  0  0  0  0  0  0  0  0  0  0  0
    1.8890    0.3290   -0.0090 H   0  0  0  0  0  0  0  0  0  0  0  0
    1.0700   -0.5020    1.3440 H   0  0  0  0  0  0  0  0  0  0  0  0
   -0.0460    1.7330   -0.4450 H   0  0  0  0  0  0  0  0  0  0  0  0
   -0.4740    1.3730    1.2520 H   0  0  0  0  0  0  0  0  0  0  0  0
  1  4  1  0  0  0  0
  2  5  1  0  0  0  0
  3  6  2  0  0  0  0
  4  8  1  0  0  0  0
  5  4  1  0  0  0  0
  5 10  1  0  0  0  0
  6  1  1  0  0  0  0
  6  2  1  0  0  0  0
  7  4  1  0  0  0  0
  9  5  1  0  0  0  0
M  END
$$$$
