8
0.0
C       -1.015804      -0.578908      -0.301055
N        0.048221      -1.400168      -0.415278
C        1.113180      -0.576474      -0.130926
C        0.637496       0.698410       0.140294
N       -0.733886       0.697593       0.031990
H       -2.031899      -0.922810      -0.465316
H        2.133138      -0.942522      -0.138004
H        1.187410       1.595059       0.401047
8
-2.3201575388084166
C       -1.005568      -0.575439      -0.299375
N        0.056803      -1.402475      -0.415161
C        1.107677      -0.588741      -0.134327
C        0.627339       0.705901       0.141323
N       -0.728301       0.705223       0.034228
H       -2.019487      -0.920522      -0.463765
H        2.124778      -0.954896      -0.141687
H        1.174615       1.601130       0.401516
8
-4.958659803058254
C       -0.993429      -0.569677      -0.296930
N        0.072152      -1.406641      -0.414953
C        1.101468      -0.611800      -0.140373
C        0.606822       0.717383       0.142552
N       -0.718791       0.717812       0.037836
H       -2.006515      -0.915413      -0.461471
H        2.120115      -0.972506      -0.146406
H        1.156037       1.611023       0.402497
8
-5.483287388429744
C       -0.986633      -0.567442      -0.295749
N        0.077790      -1.410992      -0.415549
C        1.097606      -0.625592      -0.143969
C        0.595024       0.725457       0.143661
N       -0.717493       0.724155       0.039213
H       -1.999427      -0.912502      -0.460166
H        2.118892      -0.976373      -0.147559
H        1.152102       1.613471       0.402870
8
-5.5190409490896855
C       -0.984232      -0.567082      -0.295429
N        0.078684      -1.413007      -0.415958
C        1.096130      -0.629703      -0.145054
C        0.590957       0.728071       0.144008
N       -0.718048       0.726181       0.039531
H       -1.997180      -0.911532      -0.459731
H        2.118861      -0.975824      -0.147489
H        1.152691       1.613078       0.402874
