15
Properties=species:S:1:pos:R:3 _id=951113deaf331f1bda036541a58d66a1 pbc="F F F"
C       -2.35407568       0.31642258       0.40391686
C       -1.60632254      -0.77372826      -0.32509394
O       -0.29751506      -1.00192944       0.24364800
C        0.66369149      -0.18048466      -0.19150529
O        0.54386403       0.69829965      -1.01448202
O        1.79854727      -0.50235664       0.44599372
C        2.91515851       0.33814430       0.12289681
H       -1.88756955       1.28602750       0.25205379
H       -3.37692976       0.36994917       0.02867009
H       -2.39145306       0.11214250       1.47266302
H       -1.49762300      -0.54621143      -1.38273918
H       -2.11011657      -1.73101924      -0.21828678
H        2.69363714       1.37772514       0.35264852
H        3.17309053       0.25482863      -0.93042043
H        3.73361730      -0.01780835       0.74003353
