15
Properties=species:S:1:pos:R:3 _id=d15898eca948d077d4d144ee0850aa33 pbc="F F F"
C       -3.42564683       0.50807150       0.60092712
C       -1.26367924      -0.67588672      -0.13601000
O       -0.01032909      -0.78223789       0.25581737
C        1.07784528      -0.09089094      -0.31616605
O        0.96150590       0.69617726      -1.21261518
O        2.13381058      -0.51289102       0.34621957
C        3.36360346       0.08555018      -0.08907581
H       -2.95299341       1.44469151       0.42649461
H       -4.01604173       0.06275948      -0.16353910
H       -3.46535743       0.11110210       1.58670418
H       -1.51531264      -0.03568996      -0.97192035
H       -1.89297117      -1.47675939       0.22497313
H        3.32363942       1.16898094       0.03984449
H        3.54986321      -0.15306769      -1.13818281
H        4.13206370      -0.34990935       0.54652884
